/*--------------------------------*- C++ -*----------------------------------*\
| =========                 |                                                 |
| \\      /  F ield         | OpenFOAM: The Open Source CFD Toolbox           |
|  \\    /   O peration     | Version:  5.0                                   |
|   \\  /    A nd           | Web:      www.OpenFOAM.org                      |
|    \\/     M anipulation  |                                                 |
\*---------------------------------------------------------------------------*/
FoamFile
{
    version     2.0;
    format      ascii;
    class       polyBoundaryMesh;
    location    "3.3/polyMesh";
    object      boundary;
}
// * * * * * * * * * * * * * * * * * * * * * * * * * * * * * * * * * * * * * //

6
(
    inlet
    {
        type            patch;
        nFaces          48;
        startFace       25282;
    }
    outlet
    {
        type            patch;
        nFaces          30;
        startFace       25330;
    }
    lowerWall
    {
        type            wall;
        inGroups        1(wall);
        nFaces          1064;
        startFace       25360;
    }
    upperWall
    {
        type            wall;
        inGroups        1(wall);
        nFaces          1043;
        startFace       26424;
    }
    frontWall
    {
        type            cyclic;
        inGroups        1(cyclic);
        nFaces          363;
        startFace       27467;
        matchTolerance  0.0001;
        transform       unknown;
        neighbourPatch  backWall;
    }
    backWall
    {
        type            cyclic;
        inGroups        1(cyclic);
        nFaces          363;
        startFace       27830;
        matchTolerance  0.0001;
        transform       unknown;
        neighbourPatch  frontWall;
    }
)

// ************************************************************************* //
