/*--------------------------------*- C++ -*----------------------------------*\
| =========                 |                                                 |
| \\      /  F ield         | OpenFOAM: The Open Source CFD Toolbox           |
|  \\    /   O peration     | Version:  5.0                                   |
|   \\  /    A nd           | Web:      www.OpenFOAM.org                      |
|    \\/     M anipulation  |                                                 |
\*---------------------------------------------------------------------------*/
FoamFile
{
    version     2.0;
    format      ascii;
    class       polyBoundaryMesh;
    location    "2.9/polyMesh";
    object      boundary;
}
// * * * * * * * * * * * * * * * * * * * * * * * * * * * * * * * * * * * * * //

6
(
    inlet
    {
        type            patch;
        nFaces          72;
        startFace       25543;
    }
    outlet
    {
        type            patch;
        nFaces          30;
        startFace       25615;
    }
    lowerWall
    {
        type            wall;
        inGroups        1(wall);
        nFaces          1055;
        startFace       25645;
    }
    upperWall
    {
        type            wall;
        inGroups        1(wall);
        nFaces          1079;
        startFace       26700;
    }
    frontWall
    {
        type            cyclic;
        inGroups        1(cyclic);
        nFaces          345;
        startFace       27779;
        matchTolerance  0.0001;
        transform       unknown;
        neighbourPatch  backWall;
    }
    backWall
    {
        type            cyclic;
        inGroups        1(cyclic);
        nFaces          345;
        startFace       28124;
        matchTolerance  0.0001;
        transform       unknown;
        neighbourPatch  frontWall;
    }
)

// ************************************************************************* //
