/*--------------------------------*- C++ -*----------------------------------*\
| =========                 |                                                 |
| \\      /  F ield         | OpenFOAM: The Open Source CFD Toolbox           |
|  \\    /   O peration     | Version:  5.0                                   |
|   \\  /    A nd           | Web:      www.OpenFOAM.org                      |
|    \\/     M anipulation  |                                                 |
\*---------------------------------------------------------------------------*/
FoamFile
{
    version     2.0;
    format      ascii;
    class       polyBoundaryMesh;
    location    "1.5/polyMesh";
    object      boundary;
}
// * * * * * * * * * * * * * * * * * * * * * * * * * * * * * * * * * * * * * //

6
(
    inlet
    {
        type            patch;
        nFaces          150;
        startFace       23578;
    }
    outlet
    {
        type            patch;
        nFaces          30;
        startFace       23728;
    }
    lowerWall
    {
        type            wall;
        inGroups        1(wall);
        nFaces          1082;
        startFace       23758;
    }
    upperWall
    {
        type            wall;
        inGroups        1(wall);
        nFaces          899;
        startFace       24840;
    }
    frontWall
    {
        type            cyclic;
        inGroups        1(cyclic);
        nFaces          306;
        startFace       25739;
        matchTolerance  0.0001;
        transform       unknown;
        neighbourPatch  backWall;
    }
    backWall
    {
        type            cyclic;
        inGroups        1(cyclic);
        nFaces          306;
        startFace       26045;
        matchTolerance  0.0001;
        transform       unknown;
        neighbourPatch  frontWall;
    }
)

// ************************************************************************* //
