/*--------------------------------*- C++ -*----------------------------------*\
| =========                 |                                                 |
| \\      /  F ield         | OpenFOAM: The Open Source CFD Toolbox           |
|  \\    /   O peration     | Version:  5.0                                   |
|   \\  /    A nd           | Web:      www.OpenFOAM.org                      |
|    \\/     M anipulation  |                                                 |
\*---------------------------------------------------------------------------*/
FoamFile
{
    version     2.0;
    format      ascii;
    class       polyBoundaryMesh;
    location    "0.5/polyMesh";
    object      boundary;
}
// * * * * * * * * * * * * * * * * * * * * * * * * * * * * * * * * * * * * * //

6
(
    inlet
    {
        type            patch;
        nFaces          30;
        startFace       13642;
    }
    outlet
    {
        type            patch;
        nFaces          30;
        startFace       13672;
    }
    lowerWall
    {
        type            wall;
        inGroups        1(wall);
        nFaces          773;
        startFace       13702;
    }
    upperWall
    {
        type            wall;
        inGroups        1(wall);
        nFaces          776;
        startFace       14475;
    }
    frontWall
    {
        type            cyclic;
        inGroups        1(cyclic);
        nFaces          276;
        startFace       15251;
        matchTolerance  0.0001;
        transform       unknown;
        neighbourPatch  backWall;
    }
    backWall
    {
        type            cyclic;
        inGroups        1(cyclic);
        nFaces          276;
        startFace       15527;
        matchTolerance  0.0001;
        transform       unknown;
        neighbourPatch  frontWall;
    }
)

// ************************************************************************* //
