/*--------------------------------*- C++ -*----------------------------------*\
| =========                 |                                                 |
| \\      /  F ield         | OpenFOAM: The Open Source CFD Toolbox           |
|  \\    /   O peration     | Version:  5.0                                   |
|   \\  /    A nd           | Web:      www.OpenFOAM.org                      |
|    \\/     M anipulation  |                                                 |
\*---------------------------------------------------------------------------*/
FoamFile
{
    version     2.0;
    format      ascii;
    class       polyBoundaryMesh;
    location    "2.6/polyMesh";
    object      boundary;
}
// * * * * * * * * * * * * * * * * * * * * * * * * * * * * * * * * * * * * * //

6
(
    inlet
    {
        type            patch;
        nFaces          192;
        startFace       27952;
    }
    outlet
    {
        type            patch;
        nFaces          30;
        startFace       28144;
    }
    lowerWall
    {
        type            wall;
        inGroups        1(wall);
        nFaces          1151;
        startFace       28174;
    }
    upperWall
    {
        type            wall;
        inGroups        1(wall);
        nFaces          1106;
        startFace       29325;
    }
    frontWall
    {
        type            cyclic;
        inGroups        1(cyclic);
        nFaces          354;
        startFace       30431;
        matchTolerance  0.0001;
        transform       unknown;
        neighbourPatch  backWall;
    }
    backWall
    {
        type            cyclic;
        inGroups        1(cyclic);
        nFaces          354;
        startFace       30785;
        matchTolerance  0.0001;
        transform       unknown;
        neighbourPatch  frontWall;
    }
)

// ************************************************************************* //
