/*--------------------------------*- C++ -*----------------------------------*\
| =========                 |                                                 |
| \\      /  F ield         | OpenFOAM: The Open Source CFD Toolbox           |
|  \\    /   O peration     | Version:  5.0                                   |
|   \\  /    A nd           | Web:      www.OpenFOAM.org                      |
|    \\/     M anipulation  |                                                 |
\*---------------------------------------------------------------------------*/
FoamFile
{
    version     2.0;
    format      ascii;
    class       polyBoundaryMesh;
    location    "0.6/polyMesh";
    object      boundary;
}
// * * * * * * * * * * * * * * * * * * * * * * * * * * * * * * * * * * * * * //

6
(
    inlet
    {
        type            patch;
        nFaces          240;
        startFace       24376;
    }
    outlet
    {
        type            patch;
        nFaces          30;
        startFace       24616;
    }
    lowerWall
    {
        type            wall;
        inGroups        1(wall);
        nFaces          965;
        startFace       24646;
    }
    upperWall
    {
        type            wall;
        inGroups        1(wall);
        nFaces          1046;
        startFace       25611;
    }
    frontWall
    {
        type            cyclic;
        inGroups        1(cyclic);
        nFaces          336;
        startFace       26657;
        matchTolerance  0.0001;
        transform       unknown;
        neighbourPatch  backWall;
    }
    backWall
    {
        type            cyclic;
        inGroups        1(cyclic);
        nFaces          336;
        startFace       26993;
        matchTolerance  0.0001;
        transform       unknown;
        neighbourPatch  frontWall;
    }
)

// ************************************************************************* //
