/*--------------------------------*- C++ -*----------------------------------*\
| =========                 |                                                 |
| \\      /  F ield         | OpenFOAM: The Open Source CFD Toolbox           |
|  \\    /   O peration     | Version:  5.0                                   |
|   \\  /    A nd           | Web:      www.OpenFOAM.org                      |
|    \\/     M anipulation  |                                                 |
\*---------------------------------------------------------------------------*/
FoamFile
{
    version     2.0;
    format      ascii;
    class       polyBoundaryMesh;
    location    "3.7/polyMesh";
    object      boundary;
}
// * * * * * * * * * * * * * * * * * * * * * * * * * * * * * * * * * * * * * //

6
(
    inlet
    {
        type            patch;
        nFaces          60;
        startFace       26428;
    }
    outlet
    {
        type            patch;
        nFaces          30;
        startFace       26488;
    }
    lowerWall
    {
        type            wall;
        inGroups        1(wall);
        nFaces          1118;
        startFace       26518;
    }
    upperWall
    {
        type            wall;
        inGroups        1(wall);
        nFaces          1073;
        startFace       27636;
    }
    frontWall
    {
        type            cyclic;
        inGroups        1(cyclic);
        nFaces          354;
        startFace       28709;
        matchTolerance  0.0001;
        transform       unknown;
        neighbourPatch  backWall;
    }
    backWall
    {
        type            cyclic;
        inGroups        1(cyclic);
        nFaces          354;
        startFace       29063;
        matchTolerance  0.0001;
        transform       unknown;
        neighbourPatch  frontWall;
    }
)

// ************************************************************************* //
