/*--------------------------------*- C++ -*----------------------------------*\
| =========                 |                                                 |
| \\      /  F ield         | OpenFOAM: The Open Source CFD Toolbox           |
|  \\    /   O peration     | Version:  5.0                                   |
|   \\  /    A nd           | Web:      www.OpenFOAM.org                      |
|    \\/     M anipulation  |                                                 |
\*---------------------------------------------------------------------------*/
FoamFile
{
    version     2.0;
    format      ascii;
    class       polyBoundaryMesh;
    location    "4.7/polyMesh";
    object      boundary;
}
// * * * * * * * * * * * * * * * * * * * * * * * * * * * * * * * * * * * * * //

6
(
    inlet
    {
        type            patch;
        nFaces          33;
        startFace       26710;
    }
    outlet
    {
        type            patch;
        nFaces          30;
        startFace       26743;
    }
    lowerWall
    {
        type            wall;
        inGroups        1(wall);
        nFaces          1094;
        startFace       26773;
    }
    upperWall
    {
        type            wall;
        inGroups        1(wall);
        nFaces          1076;
        startFace       27867;
    }
    frontWall
    {
        type            cyclic;
        inGroups        1(cyclic);
        nFaces          366;
        startFace       28943;
        matchTolerance  0.0001;
        transform       unknown;
        neighbourPatch  backWall;
    }
    backWall
    {
        type            cyclic;
        inGroups        1(cyclic);
        nFaces          366;
        startFace       29309;
        matchTolerance  0.0001;
        transform       unknown;
        neighbourPatch  frontWall;
    }
)

// ************************************************************************* //
