/*--------------------------------*- C++ -*----------------------------------*\
| =========                 |                                                 |
| \\      /  F ield         | OpenFOAM: The Open Source CFD Toolbox           |
|  \\    /   O peration     | Version:  5.0                                   |
|   \\  /    A nd           | Web:      www.OpenFOAM.org                      |
|    \\/     M anipulation  |                                                 |
\*---------------------------------------------------------------------------*/
FoamFile
{
    version     2.0;
    format      ascii;
    class       polyBoundaryMesh;
    location    "0.4/polyMesh";
    object      boundary;
}
// * * * * * * * * * * * * * * * * * * * * * * * * * * * * * * * * * * * * * //

6
(
    inlet
    {
        type            patch;
        nFaces          30;
        startFace       12790;
    }
    outlet
    {
        type            patch;
        nFaces          30;
        startFace       12820;
    }
    lowerWall
    {
        type            wall;
        inGroups        1(wall);
        nFaces          755;
        startFace       12850;
    }
    upperWall
    {
        type            wall;
        inGroups        1(wall);
        nFaces          755;
        startFace       13605;
    }
    frontWall
    {
        type            cyclic;
        inGroups        1(cyclic);
        nFaces          231;
        startFace       14360;
        matchTolerance  0.0001;
        transform       unknown;
        neighbourPatch  backWall;
    }
    backWall
    {
        type            cyclic;
        inGroups        1(cyclic);
        nFaces          231;
        startFace       14591;
        matchTolerance  0.0001;
        transform       unknown;
        neighbourPatch  frontWall;
    }
)

// ************************************************************************* //
