/*--------------------------------*- C++ -*----------------------------------*\
| =========                 |                                                 |
| \\      /  F ield         | OpenFOAM: The Open Source CFD Toolbox           |
|  \\    /   O peration     | Version:  5.0                                   |
|   \\  /    A nd           | Web:      www.OpenFOAM.org                      |
|    \\/     M anipulation  |                                                 |
\*---------------------------------------------------------------------------*/
FoamFile
{
    version     2.0;
    format      ascii;
    class       polyBoundaryMesh;
    location    "0.1/polyMesh";
    object      boundary;
}
// * * * * * * * * * * * * * * * * * * * * * * * * * * * * * * * * * * * * * //

6
(
    inlet
    {
        type            patch;
        nFaces          30;
        startFace       12667;
    }
    outlet
    {
        type            patch;
        nFaces          30;
        startFace       12697;
    }
    lowerWall
    {
        type            wall;
        inGroups        1(wall);
        nFaces          752;
        startFace       12727;
    }
    upperWall
    {
        type            wall;
        inGroups        1(wall);
        nFaces          752;
        startFace       13479;
    }
    frontWall
    {
        type            cyclic;
        inGroups        1(cyclic);
        nFaces          231;
        startFace       14231;
        matchTolerance  0.0001;
        transform       unknown;
        neighbourPatch  backWall;
    }
    backWall
    {
        type            cyclic;
        inGroups        1(cyclic);
        nFaces          231;
        startFace       14462;
        matchTolerance  0.0001;
        transform       unknown;
        neighbourPatch  frontWall;
    }
)

// ************************************************************************* //
