/*--------------------------------*- C++ -*----------------------------------*\
| =========                 |                                                 |
| \\      /  F ield         | OpenFOAM: The Open Source CFD Toolbox           |
|  \\    /   O peration     | Version:  5.0                                   |
|   \\  /    A nd           | Web:      www.OpenFOAM.org                      |
|    \\/     M anipulation  |                                                 |
\*---------------------------------------------------------------------------*/
FoamFile
{
    version     2.0;
    format      ascii;
    class       polyBoundaryMesh;
    location    "3/polyMesh";
    object      boundary;
}
// * * * * * * * * * * * * * * * * * * * * * * * * * * * * * * * * * * * * * //

6
(
    inlet
    {
        type            patch;
        nFaces          87;
        startFace       26815;
    }
    outlet
    {
        type            patch;
        nFaces          30;
        startFace       26902;
    }
    lowerWall
    {
        type            wall;
        inGroups        1(wall);
        nFaces          1010;
        startFace       26932;
    }
    upperWall
    {
        type            wall;
        inGroups        1(wall);
        nFaces          1154;
        startFace       27942;
    }
    frontWall
    {
        type            cyclic;
        inGroups        1(cyclic);
        nFaces          363;
        startFace       29096;
        matchTolerance  0.0001;
        transform       unknown;
        neighbourPatch  backWall;
    }
    backWall
    {
        type            cyclic;
        inGroups        1(cyclic);
        nFaces          363;
        startFace       29459;
        matchTolerance  0.0001;
        transform       unknown;
        neighbourPatch  frontWall;
    }
)

// ************************************************************************* //
