/*--------------------------------*- C++ -*----------------------------------*\
| =========                 |                                                 |
| \\      /  F ield         | OpenFOAM: The Open Source CFD Toolbox           |
|  \\    /   O peration     | Version:  5.0                                   |
|   \\  /    A nd           | Web:      www.OpenFOAM.org                      |
|    \\/     M anipulation  |                                                 |
\*---------------------------------------------------------------------------*/
FoamFile
{
    version     2.0;
    format      ascii;
    class       polyBoundaryMesh;
    location    "2.5/polyMesh";
    object      boundary;
}
// * * * * * * * * * * * * * * * * * * * * * * * * * * * * * * * * * * * * * //

6
(
    inlet
    {
        type            patch;
        nFaces          147;
        startFace       29467;
    }
    outlet
    {
        type            patch;
        nFaces          30;
        startFace       29614;
    }
    lowerWall
    {
        type            wall;
        inGroups        1(wall);
        nFaces          1232;
        startFace       29644;
    }
    upperWall
    {
        type            wall;
        inGroups        1(wall);
        nFaces          1049;
        startFace       30876;
    }
    frontWall
    {
        type            cyclic;
        inGroups        1(cyclic);
        nFaces          372;
        startFace       31925;
        matchTolerance  0.0001;
        transform       unknown;
        neighbourPatch  backWall;
    }
    backWall
    {
        type            cyclic;
        inGroups        1(cyclic);
        nFaces          372;
        startFace       32297;
        matchTolerance  0.0001;
        transform       unknown;
        neighbourPatch  frontWall;
    }
)

// ************************************************************************* //
