/*--------------------------------*- C++ -*----------------------------------*\
| =========                 |                                                 |
| \\      /  F ield         | OpenFOAM: The Open Source CFD Toolbox           |
|  \\    /   O peration     | Version:  5.0                                   |
|   \\  /    A nd           | Web:      www.OpenFOAM.org                      |
|    \\/     M anipulation  |                                                 |
\*---------------------------------------------------------------------------*/
FoamFile
{
    version     2.0;
    format      ascii;
    class       polyBoundaryMesh;
    location    "4.8/polyMesh";
    object      boundary;
}
// * * * * * * * * * * * * * * * * * * * * * * * * * * * * * * * * * * * * * //

6
(
    inlet
    {
        type            patch;
        nFaces          54;
        startFace       27454;
    }
    outlet
    {
        type            patch;
        nFaces          30;
        startFace       27508;
    }
    lowerWall
    {
        type            wall;
        inGroups        1(wall);
        nFaces          1166;
        startFace       27538;
    }
    upperWall
    {
        type            wall;
        inGroups        1(wall);
        nFaces          1088;
        startFace       28704;
    }
    frontWall
    {
        type            cyclic;
        inGroups        1(cyclic);
        nFaces          408;
        startFace       29792;
        matchTolerance  0.0001;
        transform       unknown;
        neighbourPatch  backWall;
    }
    backWall
    {
        type            cyclic;
        inGroups        1(cyclic);
        nFaces          408;
        startFace       30200;
        matchTolerance  0.0001;
        transform       unknown;
        neighbourPatch  frontWall;
    }
)

// ************************************************************************* //
