/*--------------------------------*- C++ -*----------------------------------*\
| =========                 |                                                 |
| \\      /  F ield         | OpenFOAM: The Open Source CFD Toolbox           |
|  \\    /   O peration     | Version:  5.0                                   |
|   \\  /    A nd           | Web:      www.OpenFOAM.org                      |
|    \\/     M anipulation  |                                                 |
\*---------------------------------------------------------------------------*/
FoamFile
{
    version     2.0;
    format      ascii;
    class       polyBoundaryMesh;
    location    "1.7/polyMesh";
    object      boundary;
}
// * * * * * * * * * * * * * * * * * * * * * * * * * * * * * * * * * * * * * //

6
(
    inlet
    {
        type            patch;
        nFaces          120;
        startFace       25159;
    }
    outlet
    {
        type            patch;
        nFaces          30;
        startFace       25279;
    }
    lowerWall
    {
        type            wall;
        inGroups        1(wall);
        nFaces          1067;
        startFace       25309;
    }
    upperWall
    {
        type            wall;
        inGroups        1(wall);
        nFaces          1073;
        startFace       26376;
    }
    frontWall
    {
        type            cyclic;
        inGroups        1(cyclic);
        nFaces          297;
        startFace       27449;
        matchTolerance  0.0001;
        transform       unknown;
        neighbourPatch  backWall;
    }
    backWall
    {
        type            cyclic;
        inGroups        1(cyclic);
        nFaces          297;
        startFace       27746;
        matchTolerance  0.0001;
        transform       unknown;
        neighbourPatch  frontWall;
    }
)

// ************************************************************************* //
