/*--------------------------------*- C++ -*----------------------------------*\
| =========                 |                                                 |
| \\      /  F ield         | OpenFOAM: The Open Source CFD Toolbox           |
|  \\    /   O peration     | Version:  5.0                                   |
|   \\  /    A nd           | Web:      www.OpenFOAM.org                      |
|    \\/     M anipulation  |                                                 |
\*---------------------------------------------------------------------------*/
FoamFile
{
    version     2.0;
    format      ascii;
    class       polyBoundaryMesh;
    location    "0.7/polyMesh";
    object      boundary;
}
// * * * * * * * * * * * * * * * * * * * * * * * * * * * * * * * * * * * * * //

6
(
    inlet
    {
        type            patch;
        nFaces          318;
        startFace       28708;
    }
    outlet
    {
        type            patch;
        nFaces          30;
        startFace       29026;
    }
    lowerWall
    {
        type            wall;
        inGroups        1(wall);
        nFaces          1091;
        startFace       29056;
    }
    upperWall
    {
        type            wall;
        inGroups        1(wall);
        nFaces          1127;
        startFace       30147;
    }
    frontWall
    {
        type            cyclic;
        inGroups        1(cyclic);
        nFaces          399;
        startFace       31274;
        matchTolerance  0.0001;
        transform       unknown;
        neighbourPatch  backWall;
    }
    backWall
    {
        type            cyclic;
        inGroups        1(cyclic);
        nFaces          399;
        startFace       31673;
        matchTolerance  0.0001;
        transform       unknown;
        neighbourPatch  frontWall;
    }
)

// ************************************************************************* //
