/*--------------------------------*- C++ -*----------------------------------*\
| =========                 |                                                 |
| \\      /  F ield         | OpenFOAM: The Open Source CFD Toolbox           |
|  \\    /   O peration     | Version:  5.0                                   |
|   \\  /    A nd           | Web:      www.OpenFOAM.org                      |
|    \\/     M anipulation  |                                                 |
\*---------------------------------------------------------------------------*/
FoamFile
{
    version     2.0;
    format      ascii;
    class       polyBoundaryMesh;
    location    "4.2/polyMesh";
    object      boundary;
}
// * * * * * * * * * * * * * * * * * * * * * * * * * * * * * * * * * * * * * //

6
(
    inlet
    {
        type            patch;
        nFaces          48;
        startFace       23584;
    }
    outlet
    {
        type            patch;
        nFaces          30;
        startFace       23632;
    }
    lowerWall
    {
        type            wall;
        inGroups        1(wall);
        nFaces          1052;
        startFace       23662;
    }
    upperWall
    {
        type            wall;
        inGroups        1(wall);
        nFaces          1031;
        startFace       24714;
    }
    frontWall
    {
        type            cyclic;
        inGroups        1(cyclic);
        nFaces          318;
        startFace       25745;
        matchTolerance  0.0001;
        transform       unknown;
        neighbourPatch  backWall;
    }
    backWall
    {
        type            cyclic;
        inGroups        1(cyclic);
        nFaces          318;
        startFace       26063;
        matchTolerance  0.0001;
        transform       unknown;
        neighbourPatch  frontWall;
    }
)

// ************************************************************************* //
