/*--------------------------------*- C++ -*----------------------------------*\
| =========                 |                                                 |
| \\      /  F ield         | OpenFOAM: The Open Source CFD Toolbox           |
|  \\    /   O peration     | Version:  5.0                                   |
|   \\  /    A nd           | Web:      www.OpenFOAM.org                      |
|    \\/     M anipulation  |                                                 |
\*---------------------------------------------------------------------------*/
FoamFile
{
    version     2.0;
    format      ascii;
    class       polyBoundaryMesh;
    location    "1.4/polyMesh";
    object      boundary;
}
// * * * * * * * * * * * * * * * * * * * * * * * * * * * * * * * * * * * * * //

6
(
    inlet
    {
        type            patch;
        nFaces          234;
        startFace       23698;
    }
    outlet
    {
        type            patch;
        nFaces          30;
        startFace       23932;
    }
    lowerWall
    {
        type            wall;
        inGroups        1(wall);
        nFaces          1079;
        startFace       23962;
    }
    upperWall
    {
        type            wall;
        inGroups        1(wall);
        nFaces          1019;
        startFace       25041;
    }
    frontWall
    {
        type            cyclic;
        inGroups        1(cyclic);
        nFaces          276;
        startFace       26060;
        matchTolerance  0.0001;
        transform       unknown;
        neighbourPatch  backWall;
    }
    backWall
    {
        type            cyclic;
        inGroups        1(cyclic);
        nFaces          276;
        startFace       26336;
        matchTolerance  0.0001;
        transform       unknown;
        neighbourPatch  frontWall;
    }
)

// ************************************************************************* //
