/*--------------------------------*- C++ -*----------------------------------*\
| =========                 |                                                 |
| \\      /  F ield         | OpenFOAM: The Open Source CFD Toolbox           |
|  \\    /   O peration     | Version:  5.0                                   |
|   \\  /    A nd           | Web:      www.OpenFOAM.org                      |
|    \\/     M anipulation  |                                                 |
\*---------------------------------------------------------------------------*/
FoamFile
{
    version     2.0;
    format      ascii;
    class       polyBoundaryMesh;
    location    "4.4/polyMesh";
    object      boundary;
}
// * * * * * * * * * * * * * * * * * * * * * * * * * * * * * * * * * * * * * //

6
(
    inlet
    {
        type            patch;
        nFaces          120;
        startFace       26113;
    }
    outlet
    {
        type            patch;
        nFaces          30;
        startFace       26233;
    }
    lowerWall
    {
        type            wall;
        inGroups        1(wall);
        nFaces          1046;
        startFace       26263;
    }
    upperWall
    {
        type            wall;
        inGroups        1(wall);
        nFaces          1121;
        startFace       27309;
    }
    frontWall
    {
        type            cyclic;
        inGroups        1(cyclic);
        nFaces          348;
        startFace       28430;
        matchTolerance  0.0001;
        transform       unknown;
        neighbourPatch  backWall;
    }
    backWall
    {
        type            cyclic;
        inGroups        1(cyclic);
        nFaces          348;
        startFace       28778;
        matchTolerance  0.0001;
        transform       unknown;
        neighbourPatch  frontWall;
    }
)

// ************************************************************************* //
