/*--------------------------------*- C++ -*----------------------------------*\
| =========                 |                                                 |
| \\      /  F ield         | OpenFOAM: The Open Source CFD Toolbox           |
|  \\    /   O peration     | Version:  5.0                                   |
|   \\  /    A nd           | Web:      www.OpenFOAM.org                      |
|    \\/     M anipulation  |                                                 |
\*---------------------------------------------------------------------------*/
FoamFile
{
    version     2.0;
    format      ascii;
    class       polyBoundaryMesh;
    location    "0.9/polyMesh";
    object      boundary;
}
// * * * * * * * * * * * * * * * * * * * * * * * * * * * * * * * * * * * * * //

6
(
    inlet
    {
        type            patch;
        nFaces          288;
        startFace       30991;
    }
    outlet
    {
        type            patch;
        nFaces          30;
        startFace       31279;
    }
    lowerWall
    {
        type            wall;
        inGroups        1(wall);
        nFaces          1088;
        startFace       31309;
    }
    upperWall
    {
        type            wall;
        inGroups        1(wall);
        nFaces          1241;
        startFace       32397;
    }
    frontWall
    {
        type            cyclic;
        inGroups        1(cyclic);
        nFaces          405;
        startFace       33638;
        matchTolerance  0.0001;
        transform       unknown;
        neighbourPatch  backWall;
    }
    backWall
    {
        type            cyclic;
        inGroups        1(cyclic);
        nFaces          405;
        startFace       34043;
        matchTolerance  0.0001;
        transform       unknown;
        neighbourPatch  frontWall;
    }
)

// ************************************************************************* //
