/*--------------------------------*- C++ -*----------------------------------*\
| =========                 |                                                 |
| \\      /  F ield         | OpenFOAM: The Open Source CFD Toolbox           |
|  \\    /   O peration     | Version:  5.0                                   |
|   \\  /    A nd           | Web:      www.OpenFOAM.org                      |
|    \\/     M anipulation  |                                                 |
\*---------------------------------------------------------------------------*/
FoamFile
{
    version     2.0;
    format      ascii;
    class       polyBoundaryMesh;
    location    "4.6/polyMesh";
    object      boundary;
}
// * * * * * * * * * * * * * * * * * * * * * * * * * * * * * * * * * * * * * //

6
(
    inlet
    {
        type            patch;
        nFaces          93;
        startFace       25186;
    }
    outlet
    {
        type            patch;
        nFaces          30;
        startFace       25279;
    }
    lowerWall
    {
        type            wall;
        inGroups        1(wall);
        nFaces          1010;
        startFace       25309;
    }
    upperWall
    {
        type            wall;
        inGroups        1(wall);
        nFaces          1133;
        startFace       26319;
    }
    frontWall
    {
        type            cyclic;
        inGroups        1(cyclic);
        nFaces          288;
        startFace       27452;
        matchTolerance  0.0001;
        transform       unknown;
        neighbourPatch  backWall;
    }
    backWall
    {
        type            cyclic;
        inGroups        1(cyclic);
        nFaces          288;
        startFace       27740;
        matchTolerance  0.0001;
        transform       unknown;
        neighbourPatch  frontWall;
    }
)

// ************************************************************************* //
