/*--------------------------------*- C++ -*----------------------------------*\
| =========                 |                                                 |
| \\      /  F ield         | OpenFOAM: The Open Source CFD Toolbox           |
|  \\    /   O peration     | Version:  5.0                                   |
|   \\  /    A nd           | Web:      www.OpenFOAM.org                      |
|    \\/     M anipulation  |                                                 |
\*---------------------------------------------------------------------------*/
FoamFile
{
    version     2.0;
    format      ascii;
    class       polyBoundaryMesh;
    location    "4.1/polyMesh";
    object      boundary;
}
// * * * * * * * * * * * * * * * * * * * * * * * * * * * * * * * * * * * * * //

6
(
    inlet
    {
        type            patch;
        nFaces          123;
        startFace       23167;
    }
    outlet
    {
        type            patch;
        nFaces          30;
        startFace       23290;
    }
    lowerWall
    {
        type            wall;
        inGroups        1(wall);
        nFaces          1049;
        startFace       23320;
    }
    upperWall
    {
        type            wall;
        inGroups        1(wall);
        nFaces          977;
        startFace       24369;
    }
    frontWall
    {
        type            cyclic;
        inGroups        1(cyclic);
        nFaces          312;
        startFace       25346;
        matchTolerance  0.0001;
        transform       unknown;
        neighbourPatch  backWall;
    }
    backWall
    {
        type            cyclic;
        inGroups        1(cyclic);
        nFaces          312;
        startFace       25658;
        matchTolerance  0.0001;
        transform       unknown;
        neighbourPatch  frontWall;
    }
)

// ************************************************************************* //
