/*--------------------------------*- C++ -*----------------------------------*\
| =========                 |                                                 |
| \\      /  F ield         | OpenFOAM: The Open Source CFD Toolbox           |
|  \\    /   O peration     | Version:  5.0                                   |
|   \\  /    A nd           | Web:      www.OpenFOAM.org                      |
|    \\/     M anipulation  |                                                 |
\*---------------------------------------------------------------------------*/
FoamFile
{
    version     2.0;
    format      ascii;
    class       polyBoundaryMesh;
    location    "2.7/polyMesh";
    object      boundary;
}
// * * * * * * * * * * * * * * * * * * * * * * * * * * * * * * * * * * * * * //

6
(
    inlet
    {
        type            patch;
        nFaces          30;
        startFace       22429;
    }
    outlet
    {
        type            patch;
        nFaces          30;
        startFace       22459;
    }
    lowerWall
    {
        type            wall;
        inGroups        1(wall);
        nFaces          980;
        startFace       22489;
    }
    upperWall
    {
        type            wall;
        inGroups        1(wall);
        nFaces          1025;
        startFace       23469;
    }
    frontWall
    {
        type            cyclic;
        inGroups        1(cyclic);
        nFaces          327;
        startFace       24494;
        matchTolerance  0.0001;
        transform       unknown;
        neighbourPatch  backWall;
    }
    backWall
    {
        type            cyclic;
        inGroups        1(cyclic);
        nFaces          327;
        startFace       24821;
        matchTolerance  0.0001;
        transform       unknown;
        neighbourPatch  frontWall;
    }
)

// ************************************************************************* //
