/*--------------------------------*- C++ -*----------------------------------*\
| =========                 |                                                 |
| \\      /  F ield         | OpenFOAM: The Open Source CFD Toolbox           |
|  \\    /   O peration     | Version:  5.0                                   |
|   \\  /    A nd           | Web:      www.OpenFOAM.org                      |
|    \\/     M anipulation  |                                                 |
\*---------------------------------------------------------------------------*/
FoamFile
{
    version     2.0;
    format      ascii;
    class       polyBoundaryMesh;
    location    "4/polyMesh";
    object      boundary;
}
// * * * * * * * * * * * * * * * * * * * * * * * * * * * * * * * * * * * * * //

6
(
    inlet
    {
        type            patch;
        nFaces          99;
        startFace       26755;
    }
    outlet
    {
        type            patch;
        nFaces          30;
        startFace       26854;
    }
    lowerWall
    {
        type            wall;
        inGroups        1(wall);
        nFaces          1094;
        startFace       26884;
    }
    upperWall
    {
        type            wall;
        inGroups        1(wall);
        nFaces          1097;
        startFace       27978;
    }
    frontWall
    {
        type            cyclic;
        inGroups        1(cyclic);
        nFaces          372;
        startFace       29075;
        matchTolerance  0.0001;
        transform       unknown;
        neighbourPatch  backWall;
    }
    backWall
    {
        type            cyclic;
        inGroups        1(cyclic);
        nFaces          372;
        startFace       29447;
        matchTolerance  0.0001;
        transform       unknown;
        neighbourPatch  frontWall;
    }
)

// ************************************************************************* //
