/*--------------------------------*- C++ -*----------------------------------*\
| =========                 |                                                 |
| \\      /  F ield         | OpenFOAM: The Open Source CFD Toolbox           |
|  \\    /   O peration     | Version:  5.0                                   |
|   \\  /    A nd           | Web:      www.OpenFOAM.org                      |
|    \\/     M anipulation  |                                                 |
\*---------------------------------------------------------------------------*/
FoamFile
{
    version     2.0;
    format      ascii;
    class       polyBoundaryMesh;
    location    "2.1/polyMesh";
    object      boundary;
}
// * * * * * * * * * * * * * * * * * * * * * * * * * * * * * * * * * * * * * //

6
(
    inlet
    {
        type            patch;
        nFaces          246;
        startFace       27415;
    }
    outlet
    {
        type            patch;
        nFaces          30;
        startFace       27661;
    }
    lowerWall
    {
        type            wall;
        inGroups        1(wall);
        nFaces          1049;
        startFace       27691;
    }
    upperWall
    {
        type            wall;
        inGroups        1(wall);
        nFaces          1169;
        startFace       28740;
    }
    frontWall
    {
        type            cyclic;
        inGroups        1(cyclic);
        nFaces          363;
        startFace       29909;
        matchTolerance  0.0001;
        transform       unknown;
        neighbourPatch  backWall;
    }
    backWall
    {
        type            cyclic;
        inGroups        1(cyclic);
        nFaces          363;
        startFace       30272;
        matchTolerance  0.0001;
        transform       unknown;
        neighbourPatch  frontWall;
    }
)

// ************************************************************************* //
