/*--------------------------------*- C++ -*----------------------------------*\
| =========                 |                                                 |
| \\      /  F ield         | OpenFOAM: The Open Source CFD Toolbox           |
|  \\    /   O peration     | Version:  5.0                                   |
|   \\  /    A nd           | Web:      www.OpenFOAM.org                      |
|    \\/     M anipulation  |                                                 |
\*---------------------------------------------------------------------------*/
FoamFile
{
    version     2.0;
    format      ascii;
    class       polyBoundaryMesh;
    location    "1.8/polyMesh";
    object      boundary;
}
// * * * * * * * * * * * * * * * * * * * * * * * * * * * * * * * * * * * * * //

6
(
    inlet
    {
        type            patch;
        nFaces          219;
        startFace       27583;
    }
    outlet
    {
        type            patch;
        nFaces          30;
        startFace       27802;
    }
    lowerWall
    {
        type            wall;
        inGroups        1(wall);
        nFaces          1052;
        startFace       27832;
    }
    upperWall
    {
        type            wall;
        inGroups        1(wall);
        nFaces          1154;
        startFace       28884;
    }
    frontWall
    {
        type            cyclic;
        inGroups        1(cyclic);
        nFaces          369;
        startFace       30038;
        matchTolerance  0.0001;
        transform       unknown;
        neighbourPatch  backWall;
    }
    backWall
    {
        type            cyclic;
        inGroups        1(cyclic);
        nFaces          369;
        startFace       30407;
        matchTolerance  0.0001;
        transform       unknown;
        neighbourPatch  frontWall;
    }
)

// ************************************************************************* //
