/*--------------------------------*- C++ -*----------------------------------*\
| =========                 |                                                 |
| \\      /  F ield         | OpenFOAM: The Open Source CFD Toolbox           |
|  \\    /   O peration     | Version:  5.0                                   |
|   \\  /    A nd           | Web:      www.OpenFOAM.org                      |
|    \\/     M anipulation  |                                                 |
\*---------------------------------------------------------------------------*/
FoamFile
{
    version     2.0;
    format      ascii;
    class       polyBoundaryMesh;
    location    "2.3/polyMesh";
    object      boundary;
}
// * * * * * * * * * * * * * * * * * * * * * * * * * * * * * * * * * * * * * //

6
(
    inlet
    {
        type            patch;
        nFaces          240;
        startFace       26746;
    }
    outlet
    {
        type            patch;
        nFaces          30;
        startFace       26986;
    }
    lowerWall
    {
        type            wall;
        inGroups        1(wall);
        nFaces          1058;
        startFace       27016;
    }
    upperWall
    {
        type            wall;
        inGroups        1(wall);
        nFaces          1133;
        startFace       28074;
    }
    frontWall
    {
        type            cyclic;
        inGroups        1(cyclic);
        nFaces          279;
        startFace       29207;
        matchTolerance  0.0001;
        transform       unknown;
        neighbourPatch  backWall;
    }
    backWall
    {
        type            cyclic;
        inGroups        1(cyclic);
        nFaces          279;
        startFace       29486;
        matchTolerance  0.0001;
        transform       unknown;
        neighbourPatch  frontWall;
    }
)

// ************************************************************************* //
