/*--------------------------------*- C++ -*----------------------------------*\
| =========                 |                                                 |
| \\      /  F ield         | OpenFOAM: The Open Source CFD Toolbox           |
|  \\    /   O peration     | Version:  5.0                                   |
|   \\  /    A nd           | Web:      www.OpenFOAM.org                      |
|    \\/     M anipulation  |                                                 |
\*---------------------------------------------------------------------------*/
FoamFile
{
    version     2.0;
    format      ascii;
    class       polyBoundaryMesh;
    location    "1/polyMesh";
    object      boundary;
}
// * * * * * * * * * * * * * * * * * * * * * * * * * * * * * * * * * * * * * //

6
(
    inlet
    {
        type            patch;
        nFaces          201;
        startFace       29617;
    }
    outlet
    {
        type            patch;
        nFaces          30;
        startFace       29818;
    }
    lowerWall
    {
        type            wall;
        inGroups        1(wall);
        nFaces          1079;
        startFace       29848;
    }
    upperWall
    {
        type            wall;
        inGroups        1(wall);
        nFaces          1235;
        startFace       30927;
    }
    frontWall
    {
        type            cyclic;
        inGroups        1(cyclic);
        nFaces          357;
        startFace       32162;
        matchTolerance  0.0001;
        transform       unknown;
        neighbourPatch  backWall;
    }
    backWall
    {
        type            cyclic;
        inGroups        1(cyclic);
        nFaces          357;
        startFace       32519;
        matchTolerance  0.0001;
        transform       unknown;
        neighbourPatch  frontWall;
    }
)

// ************************************************************************* //
