/*--------------------------------*- C++ -*----------------------------------*\
| =========                 |                                                 |
| \\      /  F ield         | OpenFOAM: The Open Source CFD Toolbox           |
|  \\    /   O peration     | Version:  5.0                                   |
|   \\  /    A nd           | Web:      www.OpenFOAM.org                      |
|    \\/     M anipulation  |                                                 |
\*---------------------------------------------------------------------------*/
FoamFile
{
    version     2.0;
    format      ascii;
    class       polyBoundaryMesh;
    location    "3.9/polyMesh";
    object      boundary;
}
// * * * * * * * * * * * * * * * * * * * * * * * * * * * * * * * * * * * * * //

6
(
    inlet
    {
        type            patch;
        nFaces          111;
        startFace       24280;
    }
    outlet
    {
        type            patch;
        nFaces          30;
        startFace       24391;
    }
    lowerWall
    {
        type            wall;
        inGroups        1(wall);
        nFaces          1016;
        startFace       24421;
    }
    upperWall
    {
        type            wall;
        inGroups        1(wall);
        nFaces          1061;
        startFace       25437;
    }
    frontWall
    {
        type            cyclic;
        inGroups        1(cyclic);
        nFaces          336;
        startFace       26498;
        matchTolerance  0.0001;
        transform       unknown;
        neighbourPatch  backWall;
    }
    backWall
    {
        type            cyclic;
        inGroups        1(cyclic);
        nFaces          336;
        startFace       26834;
        matchTolerance  0.0001;
        transform       unknown;
        neighbourPatch  frontWall;
    }
)

// ************************************************************************* //
