/*--------------------------------*- C++ -*----------------------------------*\
| =========                 |                                                 |
| \\      /  F ield         | OpenFOAM: The Open Source CFD Toolbox           |
|  \\    /   O peration     | Version:  5.0                                   |
|   \\  /    A nd           | Web:      www.OpenFOAM.org                      |
|    \\/     M anipulation  |                                                 |
\*---------------------------------------------------------------------------*/
FoamFile
{
    version     2.0;
    format      ascii;
    class       polyBoundaryMesh;
    location    "3.1/polyMesh";
    object      boundary;
}
// * * * * * * * * * * * * * * * * * * * * * * * * * * * * * * * * * * * * * //

6
(
    inlet
    {
        type            patch;
        nFaces          129;
        startFace       25543;
    }
    outlet
    {
        type            patch;
        nFaces          30;
        startFace       25672;
    }
    lowerWall
    {
        type            wall;
        inGroups        1(wall);
        nFaces          998;
        startFace       25702;
    }
    upperWall
    {
        type            wall;
        inGroups        1(wall);
        nFaces          1106;
        startFace       26700;
    }
    frontWall
    {
        type            cyclic;
        inGroups        1(cyclic);
        nFaces          291;
        startFace       27806;
        matchTolerance  0.0001;
        transform       unknown;
        neighbourPatch  backWall;
    }
    backWall
    {
        type            cyclic;
        inGroups        1(cyclic);
        nFaces          291;
        startFace       28097;
        matchTolerance  0.0001;
        transform       unknown;
        neighbourPatch  frontWall;
    }
)

// ************************************************************************* //
