/*--------------------------------*- C++ -*----------------------------------*\
| =========                 |                                                 |
| \\      /  F ield         | OpenFOAM: The Open Source CFD Toolbox           |
|  \\    /   O peration     | Version:  5.0                                   |
|   \\  /    A nd           | Web:      www.OpenFOAM.org                      |
|    \\/     M anipulation  |                                                 |
\*---------------------------------------------------------------------------*/
FoamFile
{
    version     2.0;
    format      ascii;
    class       polyBoundaryMesh;
    location    "3.5/polyMesh";
    object      boundary;
}
// * * * * * * * * * * * * * * * * * * * * * * * * * * * * * * * * * * * * * //

6
(
    inlet
    {
        type            patch;
        nFaces          168;
        startFace       27091;
    }
    outlet
    {
        type            patch;
        nFaces          30;
        startFace       27259;
    }
    lowerWall
    {
        type            wall;
        inGroups        1(wall);
        nFaces          1121;
        startFace       27289;
    }
    upperWall
    {
        type            wall;
        inGroups        1(wall);
        nFaces          1118;
        startFace       28410;
    }
    frontWall
    {
        type            cyclic;
        inGroups        1(cyclic);
        nFaces          342;
        startFace       29528;
        matchTolerance  0.0001;
        transform       unknown;
        neighbourPatch  backWall;
    }
    backWall
    {
        type            cyclic;
        inGroups        1(cyclic);
        nFaces          342;
        startFace       29870;
        matchTolerance  0.0001;
        transform       unknown;
        neighbourPatch  frontWall;
    }
)

// ************************************************************************* //
