/*--------------------------------*- C++ -*----------------------------------*\
| =========                 |                                                 |
| \\      /  F ield         | OpenFOAM: The Open Source CFD Toolbox           |
|  \\    /   O peration     | Version:  5.0                                   |
|   \\  /    A nd           | Web:      www.OpenFOAM.org                      |
|    \\/     M anipulation  |                                                 |
\*---------------------------------------------------------------------------*/
FoamFile
{
    version     2.0;
    format      ascii;
    class       polyBoundaryMesh;
    location    "2.8/polyMesh";
    object      boundary;
}
// * * * * * * * * * * * * * * * * * * * * * * * * * * * * * * * * * * * * * //

6
(
    inlet
    {
        type            patch;
        nFaces          141;
        startFace       25822;
    }
    outlet
    {
        type            patch;
        nFaces          30;
        startFace       25963;
    }
    lowerWall
    {
        type            wall;
        inGroups        1(wall);
        nFaces          1052;
        startFace       25993;
    }
    upperWall
    {
        type            wall;
        inGroups        1(wall);
        nFaces          1082;
        startFace       27045;
    }
    frontWall
    {
        type            cyclic;
        inGroups        1(cyclic);
        nFaces          348;
        startFace       28127;
        matchTolerance  0.0001;
        transform       unknown;
        neighbourPatch  backWall;
    }
    backWall
    {
        type            cyclic;
        inGroups        1(cyclic);
        nFaces          348;
        startFace       28475;
        matchTolerance  0.0001;
        transform       unknown;
        neighbourPatch  frontWall;
    }
)

// ************************************************************************* //
