/*--------------------------------*- C++ -*----------------------------------*\
| =========                 |                                                 |
| \\      /  F ield         | OpenFOAM: The Open Source CFD Toolbox           |
|  \\    /   O peration     | Version:  5.0                                   |
|   \\  /    A nd           | Web:      www.OpenFOAM.org                      |
|    \\/     M anipulation  |                                                 |
\*---------------------------------------------------------------------------*/
FoamFile
{
    version     2.0;
    format      ascii;
    class       polyBoundaryMesh;
    location    "1.2/polyMesh";
    object      boundary;
}
// * * * * * * * * * * * * * * * * * * * * * * * * * * * * * * * * * * * * * //

6
(
    inlet
    {
        type            patch;
        nFaces          168;
        startFace       23728;
    }
    outlet
    {
        type            patch;
        nFaces          30;
        startFace       23896;
    }
    lowerWall
    {
        type            wall;
        inGroups        1(wall);
        nFaces          1001;
        startFace       23926;
    }
    upperWall
    {
        type            wall;
        inGroups        1(wall);
        nFaces          1091;
        startFace       24927;
    }
    frontWall
    {
        type            cyclic;
        inGroups        1(cyclic);
        nFaces          288;
        startFace       26018;
        matchTolerance  0.0001;
        transform       unknown;
        neighbourPatch  backWall;
    }
    backWall
    {
        type            cyclic;
        inGroups        1(cyclic);
        nFaces          288;
        startFace       26306;
        matchTolerance  0.0001;
        transform       unknown;
        neighbourPatch  frontWall;
    }
)

// ************************************************************************* //
