/*--------------------------------*- C++ -*----------------------------------*\
| =========                 |                                                 |
| \\      /  F ield         | OpenFOAM: The Open Source CFD Toolbox           |
|  \\    /   O peration     | Version:  5.0                                   |
|   \\  /    A nd           | Web:      www.OpenFOAM.org                      |
|    \\/     M anipulation  |                                                 |
\*---------------------------------------------------------------------------*/
FoamFile
{
    version     2.0;
    format      ascii;
    class       polyBoundaryMesh;
    location    "3.4/polyMesh";
    object      boundary;
}
// * * * * * * * * * * * * * * * * * * * * * * * * * * * * * * * * * * * * * //

6
(
    inlet
    {
        type            patch;
        nFaces          39;
        startFace       25186;
    }
    outlet
    {
        type            patch;
        nFaces          30;
        startFace       25225;
    }
    lowerWall
    {
        type            wall;
        inGroups        1(wall);
        nFaces          1022;
        startFace       25255;
    }
    upperWall
    {
        type            wall;
        inGroups        1(wall);
        nFaces          1076;
        startFace       26277;
    }
    frontWall
    {
        type            cyclic;
        inGroups        1(cyclic);
        nFaces          369;
        startFace       27353;
        matchTolerance  0.0001;
        transform       unknown;
        neighbourPatch  backWall;
    }
    backWall
    {
        type            cyclic;
        inGroups        1(cyclic);
        nFaces          369;
        startFace       27722;
        matchTolerance  0.0001;
        transform       unknown;
        neighbourPatch  frontWall;
    }
)

// ************************************************************************* //
