/*--------------------------------*- C++ -*----------------------------------*\
| =========                 |                                                 |
| \\      /  F ield         | OpenFOAM: The Open Source CFD Toolbox           |
|  \\    /   O peration     | Version:  5.0                                   |
|   \\  /    A nd           | Web:      www.OpenFOAM.org                      |
|    \\/     M anipulation  |                                                 |
\*---------------------------------------------------------------------------*/
FoamFile
{
    version     2.0;
    format      ascii;
    class       polyBoundaryMesh;
    location    "3.2/polyMesh";
    object      boundary;
}
// * * * * * * * * * * * * * * * * * * * * * * * * * * * * * * * * * * * * * //

6
(
    inlet
    {
        type            patch;
        nFaces          63;
        startFace       23929;
    }
    outlet
    {
        type            patch;
        nFaces          30;
        startFace       23992;
    }
    lowerWall
    {
        type            wall;
        inGroups        1(wall);
        nFaces          977;
        startFace       24022;
    }
    upperWall
    {
        type            wall;
        inGroups        1(wall);
        nFaces          1097;
        startFace       24999;
    }
    frontWall
    {
        type            cyclic;
        inGroups        1(cyclic);
        nFaces          363;
        startFace       26096;
        matchTolerance  0.0001;
        transform       unknown;
        neighbourPatch  backWall;
    }
    backWall
    {
        type            cyclic;
        inGroups        1(cyclic);
        nFaces          363;
        startFace       26459;
        matchTolerance  0.0001;
        transform       unknown;
        neighbourPatch  frontWall;
    }
)

// ************************************************************************* //
