/*--------------------------------*- C++ -*----------------------------------*\
| =========                 |                                                 |
| \\      /  F ield         | OpenFOAM: The Open Source CFD Toolbox           |
|  \\    /   O peration     | Version:  5.0                                   |
|   \\  /    A nd           | Web:      www.OpenFOAM.org                      |
|    \\/     M anipulation  |                                                 |
\*---------------------------------------------------------------------------*/
FoamFile
{
    version     2.0;
    format      ascii;
    class       polyBoundaryMesh;
    location    "1.9/polyMesh";
    object      boundary;
}
// * * * * * * * * * * * * * * * * * * * * * * * * * * * * * * * * * * * * * //

6
(
    inlet
    {
        type            patch;
        nFaces          129;
        startFace       27883;
    }
    outlet
    {
        type            patch;
        nFaces          30;
        startFace       28012;
    }
    lowerWall
    {
        type            wall;
        inGroups        1(wall);
        nFaces          1136;
        startFace       28042;
    }
    upperWall
    {
        type            wall;
        inGroups        1(wall);
        nFaces          1118;
        startFace       29178;
    }
    frontWall
    {
        type            cyclic;
        inGroups        1(cyclic);
        nFaces          339;
        startFace       30296;
        matchTolerance  0.0001;
        transform       unknown;
        neighbourPatch  backWall;
    }
    backWall
    {
        type            cyclic;
        inGroups        1(cyclic);
        nFaces          339;
        startFace       30635;
        matchTolerance  0.0001;
        transform       unknown;
        neighbourPatch  frontWall;
    }
)

// ************************************************************************* //
