/*--------------------------------*- C++ -*----------------------------------*\
| =========                 |                                                 |
| \\      /  F ield         | OpenFOAM: The Open Source CFD Toolbox           |
|  \\    /   O peration     | Version:  5.0                                   |
|   \\  /    A nd           | Web:      www.OpenFOAM.org                      |
|    \\/     M anipulation  |                                                 |
\*---------------------------------------------------------------------------*/
FoamFile
{
    version     2.0;
    format      ascii;
    class       polyBoundaryMesh;
    location    "3.8/polyMesh";
    object      boundary;
}
// * * * * * * * * * * * * * * * * * * * * * * * * * * * * * * * * * * * * * //

6
(
    inlet
    {
        type            patch;
        nFaces          147;
        startFace       27955;
    }
    outlet
    {
        type            patch;
        nFaces          30;
        startFace       28102;
    }
    lowerWall
    {
        type            wall;
        inGroups        1(wall);
        nFaces          1133;
        startFace       28132;
    }
    upperWall
    {
        type            wall;
        inGroups        1(wall);
        nFaces          1172;
        startFace       29265;
    }
    frontWall
    {
        type            cyclic;
        inGroups        1(cyclic);
        nFaces          396;
        startFace       30437;
        matchTolerance  0.0001;
        transform       unknown;
        neighbourPatch  backWall;
    }
    backWall
    {
        type            cyclic;
        inGroups        1(cyclic);
        nFaces          396;
        startFace       30833;
        matchTolerance  0.0001;
        transform       unknown;
        neighbourPatch  frontWall;
    }
)

// ************************************************************************* //
