/*--------------------------------*- C++ -*----------------------------------*\
| =========                 |                                                 |
| \\      /  F ield         | OpenFOAM: The Open Source CFD Toolbox           |
|  \\    /   O peration     | Version:  5.0                                   |
|   \\  /    A nd           | Web:      www.OpenFOAM.org                      |
|    \\/     M anipulation  |                                                 |
\*---------------------------------------------------------------------------*/
FoamFile
{
    version     2.0;
    format      ascii;
    class       polyBoundaryMesh;
    location    "1.6/polyMesh";
    object      boundary;
}
// * * * * * * * * * * * * * * * * * * * * * * * * * * * * * * * * * * * * * //

6
(
    inlet
    {
        type            patch;
        nFaces          135;
        startFace       25552;
    }
    outlet
    {
        type            patch;
        nFaces          30;
        startFace       25687;
    }
    lowerWall
    {
        type            wall;
        inGroups        1(wall);
        nFaces          1022;
        startFace       25717;
    }
    upperWall
    {
        type            wall;
        inGroups        1(wall);
        nFaces          1121;
        startFace       26739;
    }
    frontWall
    {
        type            cyclic;
        inGroups        1(cyclic);
        nFaces          315;
        startFace       27860;
        matchTolerance  0.0001;
        transform       unknown;
        neighbourPatch  backWall;
    }
    backWall
    {
        type            cyclic;
        inGroups        1(cyclic);
        nFaces          315;
        startFace       28175;
        matchTolerance  0.0001;
        transform       unknown;
        neighbourPatch  frontWall;
    }
)

// ************************************************************************* //
